onBus20_MONETTA.m
function mpc = onBus20_MONETTA
%   Made by Tao Ding, Tsinghua University (Also a visiting scholar of The
%   University of Tennessee, Knoxville).

%   Thanks to the help of Linquan Bai and Xue Li, who are the Ph.D. student
%   of The University of Tennessee, Knoxville
%   2014/03/10
%% MATPOWER Case Format : Version 2
mpc.version = '2';

%%-----  Power Flow Data  -----%%
%% system MVA base
mpc.baseMVA = 100;

%% bus data
%	bus_i	type	Pd	Qd	Gs	Bs	area	Vm	Va	baseKV	zone	Vmax	Vmin
mpc.bus=[
1	3	0	0	0	0	1	1	0	100	1	1.1	0.9
2	1	0.84	0.42	0	0	1	1	0	100	1	1.1	0.9
3	1	0	0	0	0	1	1	0	100	1	1.1	0.9
4	1	1.68	0.84	0	0	1	1	0	100	1	1.1	0.9
5	1	0.84	0.42	0	0	1	1	0	100	1	1.1	0.9
6	1	1.68	0.84	0	0	1	1	0	100	1	1.1	0.9
7	1	0.84	0.42	0	0	1	1	0	100	1	1.1	0.9
8	1	0	0	0	0	1	1	0	100	1	1.1	0.9
9	1	1.68	0.84	0	0	1	1	0	100	1	1.1	0.9
10	1	0.84	0.42	0	0	1	1	0	100	1	1.1	0.9
11	1	1.68	0.84	0	0	1	1	0	100	1	1.1	0.9
12	1	0.84	0.42	0	0	1	1	0	100	1	1.1	0.9
13	1	0	0	0	0	1	1	0	100	1	1.1	0.9
14	1	0	0	0	0	1	1	0	100	1	1.1	0.9
15	1	0	0	0	0	1	1	0	100	1	1.1	0.9
16	1	1.68	0.84	0	0	1	1	0	100	1	1.1	0.9
17	1	0.84	0.42	0	0	1	1	0	100	1	1.1	0.9
18	1	0	0	0	0	1	1	0	100	1	1.1	0.9
19	1	1.68	0.84	0	0	1	1	0	100	1	1.1	0.9
20	1	1.68	0.84	0	0	1	1	0	100	1	1.1	0.9
21	1	0	0	0	0	1	1	0	100	1	1.1	0.9
22	1	1.68	0.84	0	0	1	1	0	100	1	1.1	0.9
23	1	0	0	0	0	1	1	0	100	1	1.1	0.9
24	1	1.68	0.84	0	0	1	1	0	100	1	1.1	0.9
25	1	0	0	0	0	1	1	0	100	1	1.1	0.9
26	1	0	0	0	0	1	1	0	100	1	1.1	0.9
27	1	0	0	0	0	1	1	0	100	1	1.1	0.9
28	1	1.68	0.84	0	0	1	1	0	100	1	1.1	0.9
29	1	1.68	0.84	0	0	1	1	0	100	1	1.1	0.9
30	1	1.68	0.84	0	0	1	1	0	100	1	1.1	0.9
31	1	0.84	0.42	0	0	1	1	0	100	1	1.1	0.9
32	1	0.84	0.42	0	0	1	1	0	100	1	1.1	0.9
33	1	1.68	0.84	0	0	1	1	0	100	1	1.1	0.9
34	1	1.68	0.84	0	0	1	1	0	100	1	1.1	0.9
35	1	1.68	0.84	0	0	1	1	0	100	1	1.1	0.9
36	1	0	0	0	0	1	1	0	100	1	1.1	0.9
37	1	1.68	0.84	0	0	1	1	0	100	1	1.1	0.9
38	1	0.84	0.42	0	0	1	1	0	100	1	1.1	0.9
39	1	0.84	0.42	0	0	1	1	0	100	1	1.1	0.9
40	1	0	0	0	0	1	1	0	100	1	1.1	0.9
41	1	0.84	0.42	0	0	1	1	0	100	1	1.1	0.9
42	1	0.84	0.42	0	0	1	1	0	100	1	1.1	0.9
43	1	1.68	0.84	0	0	1	1	0	100	1	1.1	0.9
44	1	0	0	0	0	1	1	0	100	1	1.1	0.9
45	1	0.84	0.42	0	0	1	1	0	100	1	1.1	0.9
46	1	0.84	0.42	0	0	1	1	0	100	1	1.1	0.9
47	1	4.41	3.15	0	0	1	1	0	100	1	1.1	0.9
48	1	8.82	6.3	0	0	1	1	0	100	1	1.1	0.9
49	1	5.88	3.99	0	0	1	1	0	100	1	1.1	0.9
50	1	1.68	0.84	0	0	1	1	0	100	1	1.1	0.9
51	1	0.84	0.42	0	0	1	1	0	100	1	1.1	0.9
52	1	1.68	0.84	0	0	1	1	0	100	1	1.1	0.9
53	1	1.68	0.84	0	0	1	1	0	100	1	1.1	0.9
54	1	0	0	0	0	1	1	0	100	1	1.1	0.9
55	1	0.84	0.42	0	0	1	1	0	100	1	1.1	0.9
56	1	0.84	0.42	0	0	1	1	0	100	1	1.1	0.9
57	1	0	0	0	0	1	1	0	100	1	1.1	0.9
58	1	0.84	0.42	0	0	1	1	0	100	1	1.1	0.9
59	1	0.84	0.42	0	0	1	1	0	100	1	1.1	0.9
60	1	0.84	0.42	0	0	1	1	0	100	1	1.1	0.9
61	1	0	0	0	0	1	1	0	100	1	1.1	0.9
62	1	1.68	0.84	0	0	1	1	0	100	1	1.1	0.9
63	1	1.68	0.84	0	0	1	1	0	100	1	1.1	0.9
64	1	3.15	1.47	0	0	1	1	0	100	1	1.1	0.9
65	1	5.88	4.2	0	0	1	1	0	100	1	1.1	0.9
66	1	3.15	1.47	0	0	1	1	0	100	1	1.1	0.9
67	1	0	0	0	0	1	1	0	100	1	1.1	0.9
68	1	0.84	0.42	0	0	1	1	0	100	1	1.1	0.9
69	1	1.68	0.84	0	0	1	1	0	100	1	1.1	0.9
70	1	0.84	0.42	0	0	1	1	0	100	1	1.1	0.9
71	1	1.68	0.84	0	0	1	1	0	100	1	1.1	0.9
72	1	0	0	0	0	1	1	0	100	1	1.1	0.9
73	1	1.68	0.84	0	0	1	1	0	100	1	1.1	0.9
74	1	1.68	0.84	0	0	1	1	0	100	1	1.1	0.9
75	1	1.68	0.84	0	0	1	1	0	100	1	1.1	0.9
76	1	10.29	7.56	0	0	1	1	0	100	1	1.1	0.9
77	1	1.68	0.84	0	0	1	1	0	100	1	1.1	0.9
78	1	0	0	0	0	1	1	0	100	1	1.1	0.9
79	1	1.68	0.84	0	0	1	1	0	100	1	1.1	0.9
80	1	1.68	0.84	0	0	1	1	0	100	1	1.1	0.9
81	1	0	0	0	0	1	1	0	100	1	1.1	0.9
82	1	1.68	0.84	0	0	1	1	0	100	1	1.1	0.9
83	1	0.84	0.42	0	0	1	1	0	100	1	1.1	0.9
84	1	0.84	0.42	0	0	1	1	0	100	1	1.1	0.9
85	1	1.68	0.84	0	0	1	1	0	100	1	1.1	0.9
86	1	0.84	0.42	0	0	1	1	0	100	1	1.1	0.9
87	1	1.68	0.84	0	0	1	1	0	100	1	1.1	0.9
88	1	1.68	0.84	0	0	1	1	0	100	1	1.1	0.9
89	1	0	0	0	0	1	1	0	100	1	1.1	0.9
90	1	1.68	0.84	0	0	1	1	0	100	1	1.1	0.9
91	1	0	0	0	0	1	1	0	100	1	1.1	0.9
92	1	1.68	0.84	0	0	1	1	0	100	1	1.1	0.9
93	1	0	0	0	0	1	1	0	100	1	1.1	0.9
94	1	1.68	0.84	0	0	1	1	0	100	1	1.1	0.9
95	1	0.84	0.42	0	0	1	1	0	100	1	1.1	0.9
96	1	0.84	0.42	0	0	1	1	0	100	1	1.1	0.9
97	1	0	0	0	0	1	1	0	100	1	1.1	0.9
98	1	1.68	0.84	0	0	1	1	0	100	1	1.1	0.9
99	1	1.68	0.84	0	0	1	1	0	100	1	1.1	0.9
100	1	1.68	0.84	0	0	1	1	0	100	1	1.1	0.9
101	1	0	0	0	0	1	1	0	100	1	1.1	0.9
102	1	0.84	0.42	0	0	1	1	0	100	1	1.1	0.9
103	1	1.68	0.84	0	0	1	1	0	100	1	1.1	0.9
104	1	1.68	0.84	0	0	1	1	0	100	1	1.1	0.9
105	1	0	0	0	0	1	1	0	100	1	1.1	0.9
106	1	1.68	0.84	0	0	1	1	0	100	1	1.1	0.9
107	1	1.68	0.84	0	0	1	1	0	100	1	1.1	0.9
108	1	0	0	0	0	1	1	0	100	1	1.1	0.9
109	1	1.68	0.84	0	0	1	1	0	100	1	1.1	0.9
110	1	0	0	0	0	1	1	0	100	1	1.1	0.9
111	1	0.84	0.42	0	0	1	1	0	100	1	1.1	0.9
112	1	0.84	0.42	0	0	1	1	0	100	1	1.1	0.9
113	1	1.68	0.84	0	0	1	1	0	100	1	1.1	0.9
114	1	0.84	0.42	0	0	1	1	0	100	1	1.1	0.9
115	1	0	0	0	0	1	1	0	100	1	1.1	0.9
116	1	0	0	0	0	1	1	0	100	1	1.1	0.9
117	1	0	0	0	0	1	1	0	100	1	1.1	0.9
118	1	0	0	0	0	1	1	0	100	1	1.1	0.9
119	1	0	0	0	0	1	1	0	100	1	1.1	0.9
120	1	0	0	0	0	1	1	0	100	1	1.1	0.9
121	1	0	0	0	0	1	1	0	100	1	1.1	0.9
122	1	0	0	0	0	1	1	0	100	1	1.1	0.9
123	1	1.68	0.84	0	0	1	1	0	100	1	1.1	0.9
124	1	0	0	0	0	1	1	0	100	1	1.1	0.9
125	1	0.84	0.42	0	0	1	1	0	100	1	1.1	0.9
126	1	0	0	0	0	1	1	0	100	1	1.1	0.9
127	1	1.68	0.84	0	0	1	1	0	100	1	1.1	0.9
128	1	0.84	0.42	0	0	1	1	0	100	1	1.1	0.9
129	1	1.68	0.84	0	0	1	1	0	100	1	1.1	0.9
130	1	0.84	0.42	0	0	1	1	0	100	1	1.1	0.9
131	1	0	0	0	0	1	1	0	100	1	1.1	0.9
132	1	1.68	0.84	0	0	1	1	0	100	1	1.1	0.9
133	1	0.84	0.42	0	0	1	1	0	100	1	1.1	0.9
134	1	1.68	0.84	0	0	1	1	0	100	1	1.1	0.9
135	1	0.84	0.42	0	0	1	1	0	100	1	1.1	0.9
136	1	0	0	0	0	1	1	0	100	1	1.1	0.9
137	1	0	0	0	0	1	1	0	100	1	1.1	0.9
138	1	0	0	0	0	1	1	0	100	1	1.1	0.9
139	1	1.68	0.84	0	0	1	1	0	100	1	1.1	0.9
140	1	0.84	0.42	0	0	1	1	0	100	1	1.1	0.9
141	1	0	0	0	0	1	1	0	100	1	1.1	0.9
142	1	1.68	0.84	0	0	1	1	0	100	1	1.1	0.9
143	1	1.68	0.84	0	0	1	1	0	100	1	1.1	0.9
144	1	0	0	0	0	1	1	0	100	1	1.1	0.9
145	1	1.68	0.84	0	0	1	1	0	100	1	1.1	0.9
146	1	0	0	0	0	1	1	0	100	1	1.1	0.9
147	1	1.68	0.84	0	0	1	1	0	100	1	1.1	0.9
148	1	0	0	0	0	1	1	0	100	1	1.1	0.9
149	1	0	0	0	0	1	1	0	100	1	1.1	0.9
150	1	0	0	0	0	1	1	0	100	1	1.1	0.9
151	1	1.68	0.84	0	0	1	1	0	100	1	1.1	0.9
152	1	1.68	0.84	0	0	1	1	0	100	1	1.1	0.9
153	1	1.68	0.84	0	0	1	1	0	100	1	1.1	0.9
154	1	0.84	0.42	0	0	1	1	0	100	1	1.1	0.9
155	1	0.84	0.42	0	0	1	1	0	100	1	1.1	0.9
156	1	1.68	0.84	0	0	1	1	0	100	1	1.1	0.9
157	1	1.68	0.84	0	0	1	1	0	100	1	1.1	0.9
158	1	1.68	0.84	0	0	1	1	0	100	1	1.1	0.9
159	1	0	0	0	0	1	1	0	100	1	1.1	0.9
160	1	1.68	0.84	0	0	1	1	0	100	1	1.1	0.9
161	1	0.84	0.42	0	0	1	1	0	100	1	1.1	0.9
162	1	0.84	0.42	0	0	1	1	0	100	1	1.1	0.9
163	1	0	0	0	0	1	1	0	100	1	1.1	0.9
164	1	0.84	0.42	0	0	1	1	0	100	1	1.1	0.9
165	1	0.84	0.42	0	0	1	1	0	100	1	1.1	0.9
166	1	1.68	0.84	0	0	1	1	0	100	1	1.1	0.9
167	1	0	0	0	0	1	1	0	100	1	1.1	0.9
168	1	0.84	0.42	0	0	1	1	0	100	1	1.1	0.9
169	1	0.84	0.42	0	0	1	1	0	100	1	1.1	0.9
170	1	4.41	3.15	0	0	1	1	0	100	1	1.1	0.9
171	1	8.82	6.3	0	0	1	1	0	100	1	1.1	0.9
172	1	5.88	3.99	0	0	1	1	0	100	1	1.1	0.9
173	1	1.68	0.84	0	0	1	1	0	100	1	1.1	0.9
174	1	0.84	0.42	0	0	1	1	0	100	1	1.1	0.9
175	1	1.68	0.84	0	0	1	1	0	100	1	1.1	0.9
176	1	1.68	0.84	0	0	1	1	0	100	1	1.1	0.9
177	1	0	0	0	0	1	1	0	100	1	1.1	0.9
178	1	0.84	0.42	0	0	1	1	0	100	1	1.1	0.9
179	1	0.84	0.42	0	0	1	1	0	100	1	1.1	0.9
180	1	0	0	0	0	1	1	0	100	1	1.1	0.9
181	1	0.84	0.42	0	0	1	1	0	100	1	1.1	0.9
182	1	0.84	0.42	0	0	1	1	0	100	1	1.1	0.9
183	1	0.84	0.42	0	0	1	1	0	100	1	1.1	0.9
184	1	0	0	0	0	1	1	0	100	1	1.1	0.9
185	1	1.68	0.84	0	0	1	1	0	100	1	1.1	0.9
186	1	1.68	0.84	0	0	1	1	0	100	1	1.1	0.9
187	1	3.15	1.47	0	0	1	1	0	100	1	1.1	0.9
188	1	5.88	4.2	0	0	1	1	0	100	1	1.1	0.9
189	1	3.15	1.47	0	0	1	1	0	100	1	1.1	0.9
190	1	0	0	0	0	1	1	0	100	1	1.1	0.9
191	1	0.84	0.42	0	0	1	1	0	100	1	1.1	0.9
192	1	1.68	0.84	0	0	1	1	0	100	1	1.1	0.9
193	1	0.84	0.42	0	0	1	1	0	100	1	1.1	0.9
194	1	1.68	0.84	0	0	1	1	0	100	1	1.1	0.9
195	1	0	0	0	0	1	1	0	100	1	1.1	0.9
196	1	1.68	0.84	0	0	1	1	0	100	1	1.1	0.9
197	1	1.68	0.84	0	0	1	1	0	100	1	1.1	0.9
198	1	1.68	0.84	0	0	1	1	0	100	1	1.1	0.9
199	1	10.29	7.56	0	0	1	1	0	100	1	1.1	0.9
200	1	1.68	0.84	0	0	1	1	0	100	1	1.1	0.9
201	1	0	0	0	0	1	1	0	100	1	1.1	0.9
202	1	1.68	0.84	0	0	1	1	0	100	1	1.1	0.9
203	1	1.68	0.84	0	0	1	1	0	100	1	1.1	0.9
204	1	0	0	0	0	1	1	0	100	1	1.1	0.9
205	1	1.68	0.84	0	0	1	1	0	100	1	1.1	0.9
206	1	0.84	0.42	0	0	1	1	0	100	1	1.1	0.9
207	1	0.84	0.42	0	0	1	1	0	100	1	1.1	0.9
208	1	1.68	0.84	0	0	1	1	0	100	1	1.1	0.9
209	1	0.84	0.42	0	0	1	1	0	100	1	1.1	0.9
210	1	1.68	0.84	0	0	1	1	0	100	1	1.1	0.9
211	1	1.68	0.84	0	0	1	1	0	100	1	1.1	0.9
212	1	0	0	0	0	1	1	0	100	1	1.1	0.9
213	1	1.68	0.84	0	0	1	1	0	100	1	1.1	0.9
214	1	0	0	0	0	1	1	0	100	1	1.1	0.9
215	1	1.68	0.84	0	0	1	1	0	100	1	1.1	0.9
216	1	0	0	0	0	1	1	0	100	1	1.1	0.9
217	1	1.68	0.84	0	0	1	1	0	100	1	1.1	0.9
218	1	0.84	0.42	0	0	1	1	0	100	1	1.1	0.9
219	1	0.84	0.42	0	0	1	1	0	100	1	1.1	0.9
220	1	0	0	0	0	1	1	0	100	1	1.1	0.9
221	1	1.68	0.84	0	0	1	1	0	100	1	1.1	0.9
222	1	1.68	0.84	0	0	1	1	0	100	1	1.1	0.9
223	1	1.68	0.84	0	0	1	1	0	100	1	1.1	0.9
224	1	0	0	0	0	1	1	0	100	1	1.1	0.9
225	1	0.84	0.42	0	0	1	1	0	100	1	1.1	0.9
226	1	1.68	0.84	0	0	1	1	0	100	1	1.1	0.9
227	1	1.68	0.84	0	0	1	1	0	100	1	1.1	0.9
228	1	0	0	0	0	1	1	0	100	1	1.1	0.9
229	1	1.68	0.84	0	0	1	1	0	100	1	1.1	0.9
230	1	1.68	0.84	0	0	1	1	0	100	1	1.1	0.9
231	1	0	0	0	0	1	1	0	100	1	1.1	0.9
232	1	1.68	0.84	0	0	1	1	0	100	1	1.1	0.9
233	1	0	0	0	0	1	1	0	100	1	1.1	0.9
234	1	0.84	0.42	0	0	1	1	0	100	1	1.1	0.9
235	1	0.84	0.42	0	0	1	1	0	100	1	1.1	0.9
236	1	1.68	0.84	0	0	1	1	0	100	1	1.1	0.9
237	1	0.84	0.42	0	0	1	1	0	100	1	1.1	0.9
238	1	0	0	0	0	1	1	0	100	1	1.1	0.9
239	1	0	0	0	0	1	1	0	100	1	1.1	0.9
240	1	0	0	0	0	1	1	0	100	1	1.1	0.9
241	1	0	0	0	0	1	1	0	100	1	1.1	0.9
242	1	0	0	0	0	1	1	0	100	1	1.1	0.9
243	1	0	0	0	0	1	1	0	100	1	1.1	0.9
244	1	0	0	0	0	1	1	0	100	1	1.1	0.9
245	1	0	0	0	0	1	1	0	100	1	1.1	0.9
246	1	1.68	0.84	0	0	1	1	0	100	1	1.1	0.9
247	1	1.68	0.84	0	0	1	1	0	100	1	1.1	0.9
248	1	1.68	0.84	0	0	1	1	0	100	1	1.1	0.9
  ];

%% generator data
%	bus	Pg	Qg	Qmax	Qmin	Vg	mBase	status	Pmax	Pmin	Pc1	Pc2	Qc1min	Qc1max	Qc2min	Qc2max	ramp_agc	ramp_10	ramp_30	ramp_q	apf
mpc.gen = [
	18	0	0	180	2.0	1	100	1	40	0	0	0	0	0	0	0	0	0	0	0	0;
    67	0	0	120	1.6	1	100	1	20	0	0	0	0	0	0	0	0	0	0	0	0;
    141	0	0	160	1.6	1	100	1	35	0	0	0	0	0	0	0	0	0	0	0	0;
    199	0	0	140	1.6	1	100	1	30	0	0	0	0	0	0	0	0	0	0	0	0;
];
mpc.gasgen = [
	123	0	0	0	0	1	100	1	25	0	0	0	0	0	0	0	0	0	0	0	0;
    136	0	0	0	0	1	100	1	20	0	0	0	0	0	0	0	0	0	0	0	0;   
];
%	bus	Emax	Emin	Qmax	Qmin	Vg	mBase	status	Pmax	Pmin	Pc1	Pc2	Qc1min	Qc1max	Qc2min	Qc2max	ramp_agc	ramp_10	ramp_30	ramp_q	apf
mpc.battery = [
    74	20	0	0	0	1	100	1	5	0	0	0	0	0	0	0	0	0	0	0	0;
];

%% branch data
%	fbus	tbus	r	x	b	rateA	rateB	rateC	ratio	angle	status	angmin	angmax
mpc.branch=[
123	2	0.00025	0.00026	0	250	250	250	0	0	1
123	3	0.00036	0.00037	0	250	250	250	0	0	1
123	7	0.00015	0.00035	0	250	250	250	0	0	1
3	4	0.00029	0.00029	0	250	250	250	0	0	1
3	5	0.00047	0.00048	0	250	250	250	0	0	1
5	6	0.00036	0.00037	0	250	250	250	0	0	1
7	8	0.0001	0.00024	0	250	250	250	0	0	1
8	12	0.00033	0.00033	0	250	250	250	0	0	1
8	9	0.00033	0.00033	0	250	250	250	0	0	1
8	13	0.00015	0.00035	0	250	250	250	0	0	1
9	14	0.00062	0.00063	0	250	250	250	0	0	1
13	34	0.00022	0.00022	0	250	250	250	0	0	1
13	18	0.00042	0.00095	0	250	250	250	0	0	1
14	11	0.00036	0.00037	0	250	250	250	0	0	1
14	10	0.00036	0.00037	0	250	250	250	0	0	1
15	16	0.00055	0.00055	0	250	250	250	0	0	1
15	17	0.00051	0.00052	0	250	250	250	0	0	1
18	19	0.00036	0.00037	0	250	250	250	0	0	1
18	21	0.00015	0.00034	0	250	250	250	0	0	1
19	20	0.00047	0.00048	0	250	250	250	0	0	1
21	22	0.00076	0.00077	0	250	250	250	0	0	1
21	23	0.00013	0.00029	0	250	250	250	0	0	1
23	24	0.0008	0.00081	0	250	250	250	0	0	1
23	25	0.00014	0.00032	0	250	250	250	0	0	1
25	26	0.00018	0.00041	0	250	250	250	0	0	1
25	28	0.0001	0.00023	0	250	250	250	0	0	1
26	27	0.00014	0.00032	0	250	250	250	0	0	1
26	31	0.00033	0.00033	0	250	250	250	0	0	1
27	33	0.00073	0.00074	0	250	250	250	0	0	1
28	29	0.00015	0.00034	0	250	250	250	0	0	1
29	30	0.00018	0.0004	0	250	250	250	0	0	1
30	122	0.0001	0.00023	0	250	250	250	0	0	1
31	32	0.00044	0.00044	0	250	250	250	0	0	1
34	15	0.00015	0.00015	0	250	250	250	0	0	1
35	36	0.00033	0.00077	0	250	250	250	0	0	1
35	40	0.00013	0.00029	0	250	250	250	0	0	1
36	37	0.00044	0.00044	0	250	250	250	0	0	1
36	38	0.00036	0.00037	0	250	250	250	0	0	1
38	39	0.00047	0.00048	0	250	250	250	0	0	1
40	41	0.00047	0.00048	0	250	250	250	0	0	1
40	42	0.00013	0.00029	0	250	250	250	0	0	1
42	43	0.00073	0.00074	0	250	250	250	0	0	1
42	44	0.0001	0.00024	0	250	250	250	0	0	1
44	45	0.00029	0.00029	0	250	250	250	0	0	1
44	47	0.00013	0.00029	0	250	250	250	0	0	1
45	46	0.00044	0.00044	0	250	250	250	0	0	1
47	48	8.00E-05	0.00017	0	250	250	250	0	0	1
47	49	0.00013	0.00029	0	250	250	250	0	0	1
49	50	0.00013	0.00029	0	250	250	250	0	0	1
50	51	0.00013	0.00029	0	250	250	250	0	0	1
51	116	0.00025	0.00058	0	250	250	250	0	0	1
52	53	0.0001	0.00024	0	250	250	250	0	0	1
53	54	6.00E-05	0.00015	0	250	250	250	0	0	1
54	55	0.00014	0.00032	0	250	250	250	0	0	1
54	57	0.00018	0.00041	0	250	250	250	0	0	1
55	56	0.00014	0.00032	0	250	250	250	0	0	1
57	58	0.00036	0.00037	0	250	250	250	0	0	1
57	60	0.00038	0.00087	0	250	250	250	0	0	1
58	59	0.00036	0.00037	0	250	250	250	0	0	1
60	61	0.00028	0.00063	0	250	250	250	0	0	1
60	62	0.00042	0.00021	0	250	250	250	0	0	1
62	63	0.00029	0.00014	0	250	250	250	0	0	1
63	64	0.00058	0.00029	0	250	250	250	0	0	1
64	65	0.00071	0.00035	0	250	250	250	0	0	1
65	66	0.00054	0.00027	0	250	250	250	0	0	1
67	68	0.00029	0.00029	0	250	250	250	0	0	1
67	72	0.00014	0.00032	0	250	250	250	0	0	1
67	97	0.00013	0.00029	0	250	250	250	0	0	1
68	69	0.0004	0.00041	0	250	250	250	0	0	1
69	70	0.00047	0.00048	0	250	250	250	0	0	1
70	71	0.0004	0.00041	0	250	250	250	0	0	1
72	73	0.0004	0.00041	0	250	250	250	0	0	1
72	76	0.0001	0.00023	0	250	250	250	0	0	1
73	74	0.00051	0.00052	0	250	250	250	0	0	1
74	75	0.00058	0.00059	0	250	250	250	0	0	1
76	77	0.0002	0.00047	0	250	250	250	0	0	1
76	86	0.00035	0.00082	0	250	250	250	0	0	1
77	78	5.00E-05	0.00012	0	250	250	250	0	0	1
78	79	0.00011	0.00027	0	250	250	250	0	0	1
78	80	0.00024	0.00056	0	250	250	250	0	0	1
80	81	0.00024	0.00056	0	250	250	250	0	0	1
81	82	0.00013	0.00029	0	250	250	250	0	0	1
81	84	0.00098	0.001	0	250	250	250	0	0	1
82	83	0.00013	0.00029	0	250	250	250	0	0	1
84	85	0.00069	0.0007	0	250	250	250	0	0	1
86	87	0.00023	0.00053	0	250	250	250	0	0	1
87	88	0.00025	0.00026	0	250	250	250	0	0	1
87	89	0.00014	0.00032	0	250	250	250	0	0	1
89	90	0.00033	0.00033	0	250	250	250	0	0	1
89	91	0.00011	0.00027	0	250	250	250	0	0	1
91	92	0.00044	0.00044	0	250	250	250	0	0	1
91	93	0.00011	0.00027	0	250	250	250	0	0	1
93	94	0.0004	0.00041	0	250	250	250	0	0	1
93	95	0.00015	0.00035	0	250	250	250	0	0	1
95	96	0.00029	0.00029	0	250	250	250	0	0	1
97	98	0.00014	0.00032	0	250	250	250	0	0	1
98	99	0.00028	0.00064	0	250	250	250	0	0	1
99	100	0.00015	0.00035	0	250	250	250	0	0	1
100	118	0.0004	0.00093	0	250	250	250	0	0	1
101	102	0.00033	0.00033	0	250	250	250	0	0	1
101	105	0.00014	0.00032	0	250	250	250	0	0	1
102	103	0.00047	0.00048	0	250	250	250	0	0	1
103	104	0.00102	0.00103	0	250	250	250	0	0	1
105	106	0.00033	0.00033	0	250	250	250	0	0	1
105	108	0.00016	0.00038	0	250	250	250	0	0	1
106	107	0.00084	0.00085	0	250	250	250	0	0	1
108	109	0.00065	0.00066	0	250	250	250	0	0	1
108	115	0.00051	0.00117	0	250	250	250	0	0	1
109	110	0.00044	0.00044	0	250	250	250	0	0	1
110	111	0.00084	0.00085	0	250	250	250	0	0	1
110	112	0.00018	0.00018	0	250	250	250	0	0	1
112	113	0.00076	0.00077	0	250	250	250	0	0	1
113	114	0.00047	0.00048	0	250	250	250	0	0	1
121	35	0.00019	0.00044	0	250	250	250	0	0	1
1	123	0.0002	0.00047	0	250	250	250	0	0	1
120	52	0.0002	0.00047	0	250	250	250	0	0	1
119	67	0.00018	0.00041	0	250	250	250	0	0	1
117	101	0.00013	0.00029	0	250	250	250	0	0	1
18	121	0.00025	0.00026	0	250	250	250	0	0	1
13	120	0.00025	0.00026	0	250	250	250	0	0	1
116	115	0.00025	0.00026	0	250	250	250	0	0	1
60	119	0.00025	0.00026	0	250	250	250	0	0	1
124	1	0.00025	0.00026	0	250	250	250	0	0	1
246	125	0.00025	0.00026	0	250	250	250	0	0	1
246	126	0.00036	0.00037	0	250	250	250	0	0	1
246	130	0.00015	0.00035	0	250	250	250	0	0	1
126	127	0.00029	0.00029	0	250	250	250	0	0	1
126	128	0.00047	0.00048	0	250	250	250	0	0	1
128	129	0.00036	0.00037	0	250	250	250	0	0	1
130	131	0.0001	0.00024	0	250	250	250	0	0	1
131	135	0.00033	0.00033	0	250	250	250	0	0	1
131	132	0.00033	0.00033	0	250	250	250	0	0	1
131	136	0.00015	0.00035	0	250	250	250	0	0	1
132	137	0.00062	0.00063	0	250	250	250	0	0	1
136	157	0.00022	0.00022	0	250	250	250	0	0	1
136	141	0.00042	0.00095	0	250	250	250	0	0	1
137	134	0.00036	0.00037	0	250	250	250	0	0	1
137	133	0.00036	0.00037	0	250	250	250	0	0	1
138	139	0.00055	0.00055	0	250	250	250	0	0	1
138	140	0.00051	0.00052	0	250	250	250	0	0	1
141	142	0.00036	0.00037	0	250	250	250	0	0	1
141	144	0.00015	0.00034	0	250	250	250	0	0	1
142	143	0.00047	0.00048	0	250	250	250	0	0	1
144	145	0.00076	0.00077	0	250	250	250	0	0	1
144	146	0.00013	0.00029	0	250	250	250	0	0	1
146	147	0.0008	0.00081	0	250	250	250	0	0	1
146	148	0.00014	0.00032	0	250	250	250	0	0	1
148	149	0.00018	0.00041	0	250	250	250	0	0	1
148	151	0.0001	0.00023	0	250	250	250	0	0	1
149	150	0.00014	0.00032	0	250	250	250	0	0	1
149	154	0.00033	0.00033	0	250	250	250	0	0	1
150	156	0.00073	0.00074	0	250	250	250	0	0	1
151	152	0.00015	0.00034	0	250	250	250	0	0	1
152	153	0.00018	0.0004	0	250	250	250	0	0	1
153	245	0.0001	0.00023	0	250	250	250	0	0	1
154	155	0.00044	0.00044	0	250	250	250	0	0	1
157	138	0.00015	0.00015	0	250	250	250	0	0	1
158	159	0.00033	0.00077	0	250	250	250	0	0	1
158	163	0.00013	0.00029	0	250	250	250	0	0	1
159	160	0.00044	0.00044	0	250	250	250	0	0	1
159	161	0.00036	0.00037	0	250	250	250	0	0	1
161	162	0.00047	0.00048	0	250	250	250	0	0	1
163	164	0.00047	0.00048	0	250	250	250	0	0	1
163	165	0.00013	0.00029	0	250	250	250	0	0	1
165	166	0.00073	0.00074	0	250	250	250	0	0	1
165	167	0.0001	0.00024	0	250	250	250	0	0	1
167	168	0.00029	0.00029	0	250	250	250	0	0	1
167	170	0.00013	0.00029	0	250	250	250	0	0	1
168	169	0.00044	0.00044	0	250	250	250	0	0	1
170	171	8.00E-05	0.00017	0	250	250	250	0	0	1
170	172	0.00013	0.00029	0	250	250	250	0	0	1
172	173	0.00013	0.00029	0	250	250	250	0	0	1
173	174	0.00013	0.00029	0	250	250	250	0	0	1
174	239	0.00025	0.00058	0	250	250	250	0	0	1
175	176	0.0001	0.00024	0	250	250	250	0	0	1
176	177	6.00E-05	0.00015	0	250	250	250	0	0	1
177	178	0.00014	0.00032	0	250	250	250	0	0	1
177	180	0.00018	0.00041	0	250	250	250	0	0	1
178	179	0.00014	0.00032	0	250	250	250	0	0	1
180	181	0.00036	0.00037	0	250	250	250	0	0	1
180	183	0.00038	0.00087	0	250	250	250	0	0	1
181	182	0.00036	0.00037	0	250	250	250	0	0	1
183	184	0.00028	0.00063	0	250	250	250	0	0	1
183	185	0.00042	0.00021	0	250	250	250	0	0	1
185	186	0.00029	0.00014	0	250	250	250	0	0	1
186	187	0.00058	0.00029	0	250	250	250	0	0	1
187	188	0.00071	0.00035	0	250	250	250	0	0	1
188	189	0.00054	0.00027	0	250	250	250	0	0	1
190	191	0.00029	0.00029	0	250	250	250	0	0	1
190	195	0.00014	0.00032	0	250	250	250	0	0	1
190	220	0.00013	0.00029	0	250	250	250	0	0	1
191	192	0.0004	0.00041	0	250	250	250	0	0	1
192	193	0.00047	0.00048	0	250	250	250	0	0	1
193	194	0.0004	0.00041	0	250	250	250	0	0	1
195	196	0.0004	0.00041	0	250	250	250	0	0	1
195	199	0.0001	0.00023	0	250	250	250	0	0	1
196	197	0.00051	0.00052	0	250	250	250	0	0	1
197	198	0.00058	0.00059	0	250	250	250	0	0	1
199	200	0.0002	0.00047	0	250	250	250	0	0	1
199	209	0.00035	0.00082	0	250	250	250	0	0	1
200	201	5.00E-05	0.00012	0	250	250	250	0	0	1
201	202	0.00011	0.00027	0	250	250	250	0	0	1
201	203	0.00024	0.00056	0	250	250	250	0	0	1
203	204	0.00024	0.00056	0	250	250	250	0	0	1
204	205	0.00013	0.00029	0	250	250	250	0	0	1
204	207	0.00098	0.001	0	250	250	250	0	0	1
205	206	0.00013	0.00029	0	250	250	250	0	0	1
207	208	0.00069	0.0007	0	250	250	250	0	0	1
209	210	0.00023	0.00053	0	250	250	250	0	0	1
210	211	0.00025	0.00026	0	250	250	250	0	0	1
210	212	0.00014	0.00032	0	250	250	250	0	0	1
212	213	0.00033	0.00033	0	250	250	250	0	0	1
212	214	0.00011	0.00027	0	250	250	250	0	0	1
214	215	0.00044	0.00044	0	250	250	250	0	0	1
214	216	0.00011	0.00027	0	250	250	250	0	0	1
216	217	0.0004	0.00041	0	250	250	250	0	0	1
216	218	0.00015	0.00035	0	250	250	250	0	0	1
218	219	0.00029	0.00029	0	250	250	250	0	0	1
220	221	0.00014	0.00032	0	250	250	250	0	0	1
221	222	0.00028	0.00064	0	250	250	250	0	0	1
222	223	0.00015	0.00035	0	250	250	250	0	0	1
223	241	0.0004	0.00093	0	250	250	250	0	0	1
224	225	0.00033	0.00033	0	250	250	250	0	0	1
224	228	0.00014	0.00032	0	250	250	250	0	0	1
225	226	0.00047	0.00048	0	250	250	250	0	0	1
226	227	0.00102	0.00103	0	250	250	250	0	0	1
228	229	0.00033	0.00033	0	250	250	250	0	0	1
228	231	0.00016	0.00038	0	250	250	250	0	0	1
229	230	0.00084	0.00085	0	250	250	250	0	0	1
231	232	0.00065	0.00066	0	250	250	250	0	0	1
231	238	0.00051	0.00117	0	250	250	250	0	0	1
232	233	0.00044	0.00044	0	250	250	250	0	0	1
233	234	0.00084	0.00085	0	250	250	250	0	0	1
233	235	0.00018	0.00018	0	250	250	250	0	0	1
235	236	0.00076	0.00077	0	250	250	250	0	0	1
236	237	0.00047	0.00048	0	250	250	250	0	0	1
237	247	0.00035	0.00039	0	250	250	250	0	0	1
247	248	0.00027	0.00031	0	250	250	250	0	0	1
244	158	0.00019	0.00044	0	250	250	250	0	0	1
124	246	0.0002	0.00047	0	250	250	250	0	0	1
243	175	0.0002	0.00047	0	250	250	250	0	0	1
242	190	0.00018	0.00041	0	250	250	250	0	0	1
240	224	0.00013	0.00029	0	250	250	250	0	0	1
141	244	0.00025	0.00026	0	250	250	250	0	0	1
136	243	0.00025	0.00026	0	250	250	250	0	0	1
239	238	0.00025	0.00026	0	250	250	250	0	0	1
183	242	0.00025	0.00026	0	250	250	250	0	0	1
  ];
%%-----  OPF Data  -----%%
%% generator cost data
%	1	startup	shutdown	n	x1	y1	...	xn	yn 
%	2	startup	shutdown	n	c(n-1)	...	c0 
mpc.gencost = [
	2	0	0	3	0.025	45	0;
	2	0	0	3	0.025	60	0;
    2	0	0	3	0.025	50	0;
	2	0	0	3	0.025	55	0;
    2	0	0	3	0.05	5	0;
];   
%% number
mpc.nBus = size(mpc.bus,1);
mpc.nBranch = size(mpc.branch,1);
mpc.nDgen = size(mpc.gen,1);
mpc.nGtur = size(mpc.gasgen,1);
mpc.nBatr = size(mpc.battery,1);
%% elec load curve
mpc.loadcurve = [266.32
254.85
262.35
269.96
271.48
257.48
248.28
247.74
255.38
251.25
255.58
248.71
262.94
265.88
263.49
258.23
256.32
251.39
254.78
263.88
258.65
246.51
243.44
249
];

mpc.loadcurve = mpc.loadcurve/(max(mpc.loadcurve));%Normalized to take the shape of its load curve
